Circuit: * D:\OneDrive\My Projects\SPICE_simulations\Audio\stompboxes\www.efekty.diy-pl\GE-7\GE-7.asc

Early termination of direct N-R iteration.
Direct Newton iteration failed to find .op point.  (Use ".option noopiter" to skip.)
Starting Gmin stepping
Gmin = 10
vernier = 0.5
vernier = 0.25
vernier = 0.125
Gmin = 5.5165
vernier = 0.0625
vernier = 0.03125
vernier = 0.015625
vernier = 0.0078125
Gmin = 5.49501
vernier = 0.00390625
vernier = 0.00195313
vernier = 0.000976563
vernier = 0.000488281
Gmin = 5.50104
Gmin = 0
Gmin stepping failed

Starting source stepping with srcstepmethod=0
Source Step = 3.0303%
Source Step = 33.3333%
Source Step = 63.6364%
Source Step = 93.9394%
Source stepping succeeded in finding the operating point.

.step rv_wiper=0
.step rv_wiper=0.16667
.step rv_wiper=0.33334
.step rv_wiper=0.50001
.step rv_wiper=0.66668
.step rv_wiper=0.83335
.step rv_wiper=1

Date: Thu May 23 11:19:13 2019
Total elapsed time: 25.708 seconds.

tnom = 27
temp = 27
method = trap
totiter = 1673
traniter = 0
tranpoints = 0
accept = 0
rejected = 0
matrix size = 243
fillins = 4914
solver = Normal
Matrix Compiler1:   72469 opcodes
Matrix Compiler2: 106.10 KB object code size  17.9/10.4/[8.1]


