Circuit: * D:\OneDrive\My Projects\SPICE_simulations\Audio\stompboxes\www.tonepad.com\Ross Compressor\Ross Compressor.asc

WARNING: Node VAA is floating.
WARNING: Node N013 is floating.

WARNING: Less than two connections to node VAA.  This node is used by R11.
WARNING: Less than two connections to node N012.  This node is used by R9.
Early termination of direct N-R iteration.
Direct Newton iteration failed to find .op point.  (Use ".option noopiter" to skip.)
Starting Gmin stepping
Gmin = 10
vernier = 0.5
vernier = 0.25
vernier = 0.125
vernier = 0.0625
Gmin = 8.61953
vernier = 0.03125
vernier = 0.015625
vernier = 0.0078125
vernier = 0.00390625
Gmin = 8.47038
vernier = 0.00195313
vernier = 0.000976563
vernier = 0.000488281
Gmin = 0
Gmin stepping succeeded in finding the operating point.


Date: Tue Nov 20 21:16:18 2018
Total elapsed time: 0.172 seconds.

tnom = 27
temp = 27
method = modified trap
totiter = 3536
traniter = 2181
tranpoints = 1090
accept = 1061
rejected = 29
matrix size = 65
fillins = 213
solver = Normal
Matrix Compiler1: 16.09 KB object code size  2.9/1.3/[0.9]
Matrix Compiler2: 8.76 KB object code size  1.1/1.2/[0.6]


