Circuit: * D:\OneDrive\My Projects\SPICE_simulations\Audio\stompboxes\www.efekty.diy-pl\Fuzz Factory\Fuzz Factory.asc

Direct Newton iteration for .op point succeeded.

Date: Tue May 21 17:38:10 2019
Total elapsed time: 0.120 seconds.

tnom = 27
temp = 27
method = trap
totiter = 9
traniter = 0
tranpoints = 0
accept = 0
rejected = 0
matrix size = 20
fillins = 0
solver = Normal
Matrix Compiler1:      87 opcodes
Matrix Compiler2: 1.67 KB object code size

